# CIF file created by FINDSYM, version 7.1.3

data_findsym-output
_audit_creation_method FINDSYM

_cell_length_a     4.3000000000
_cell_length_b     7.6000000000
_cell_length_c     5.7270000000
_cell_angle_alpha  90.0000000000
_cell_angle_beta   102.0900000000
_cell_angle_gamma  90.0000000000
_cell_volume       183.0071514924

_symmetry_space_group_name_H-M "P 1 21 1"
_symmetry_Int_Tables_number 4
_space_group.reference_setting '004:P 2yb'
_space_group.transform_Pp_abc a,b,c;0,0,0

loop_
_space_group_symop_id
_space_group_symop_operation_xyz
1 x,y,z
2 -x,y+1/2,-z

loop_
_atom_site_label
_atom_site_type_symbol
_atom_site_symmetry_multiplicity
_atom_site_Wyckoff_symbol
_atom_site_fract_x
_atom_site_fract_y
_atom_site_fract_z
_atom_site_occupancy
_atom_site_fract_symmform
O1 O   2 a  0.34919  0.81250  0.29286  1.00000 Dx,Dy,Dz 
H1 H   2 a  0.51098  0.72368  0.32678  1.00000 Dx,Dy,Dz 
H2 H   2 a  0.45942 -0.08553  0.25446  1.00000 Dx,Dy,Dz 
O2 O   2 a  0.83457  0.87829  0.89464  1.00000 Dx,Dy,Dz 
H3 H   2 a  0.75474 -0.02895 -0.02053  1.00000 Dx,Dy,Dz 
H4 H   2 a  0.00714  0.82829  0.00893  1.00000 Dx,Dy,Dz 
O3 O   2 a  0.37618  0.61447  0.80625  1.00000 Dx,Dy,Dz 
H5 H   2 a  0.21915  0.63619  0.66429  1.00000 Dx,Dy,Dz 
H6 H   2 a  0.52378  0.70921  0.81429  1.00000 Dx,Dy,Dz 
O4 O   2 a  0.14808  0.05789  0.58482  1.00000 Dx,Dy,Dz 
H7 H   2 a  0.03727  0.00066  0.69196  1.00000 Dx,Dy,Dz 
H8 H   2 a  0.21503 -0.03684  0.49553  1.00000 Dx,Dy,Dz 

# end of cif
