data_T2_refined

_cell_length_a                  19.912(0)
_cell_length_b                  19.912(0)
_cell_length_c                   7.575(0)
_cell_angle_alpha               90.0000(0)
_cell_angle_beta                90.0000(0)
_cell_angle_gamma               90.0000(0)

_symmetry_space_group_name_H-M     'I 41/a c d'
_symmetry_Int_Tables_number         142
# _space_group.IT_coordinate_system_code  '2'
_symmetry_cell_setting             tetragonal

loop_
_symmetry_equiv_pos_as_xyz
'  x,            y,            z'
'     -x,           -y,            z'
'     -y,          1/2+x,        1/4+z'
'      y,          1/2-x,        1/4+z'
'     -x,            y,          1/2+z'
'      x,           -y,          1/2+z'
'    1/2+y,          x,          1/4+z'
'    1/2-y,         -x,          1/4+z'
'     -x,          1/2-y,        1/4-z'
'      x,          1/2+y,        1/4-z'
'      y,           -x,           -z'
'     -y,            x,           -z'
'    1/2+x,         -y,          1/4-z'
'    1/2-x,          y,          1/4-z'
'     -y,           -x,          1/2-z'
'      y,            x,          1/2-z'
'  x+1/2,            y+1/2,            z+1/2'
'     -x+1/2,           -y+1/2,            z+1/2'
'     -y+1/2,          1/2+x+1/2,        1/4+z+1/2'
'      y+1/2,          1/2-x+1/2,        1/4+z+1/2'
'     -x+1/2,            y+1/2,          1/2+z+1/2'
'      x+1/2,           -y+1/2,          1/2+z+1/2'
'    1/2+y+1/2,          x+1/2,          1/4+z+1/2'
'    1/2-y+1/2,         -x+1/2,          1/4+z+1/2'
'     -x+1/2,          1/2-y+1/2,        1/4-z+1/2'
'      x+1/2,          1/2+y+1/2,        1/4-z+1/2'
'      y+1/2,           -x+1/2,           -z+1/2'
'     -y+1/2,            x+1/2,           -z+1/2'
'    1/2+x+1/2,         -y+1/2,          1/4-z+1/2'
'    1/2-x+1/2,          y+1/2,          1/4-z+1/2'
'     -y+1/2,           -x+1/2,          1/2-z+1/2'
'      y+1/2,            x+1/2,          1/2-z+1/2'

loop_
_atom_site_label
_atom_site_type_symbol
_atom_site_fract_x
_atom_site_fract_y
_atom_site_fract_z
 T0  T 0.000 0.000 0.250 # 0.95 11
 T21 T 0.109 0.109 0.750 # 0.92 8
 T13 T 0.074 0.674 0.903 # 0.89 9
 T11 T 0.061 0.235 0.706 # 0.89 10
 T2  T 0.026 0.111 0.043 # 1.00 8
 T28 T 0.185 0.204 0.034 # 0.95 9
